/*--------------------------------*- C++ -*----------------------------------*\
  =========                 |
  \\      /  F ield         | OpenFOAM: The Open Source CFD Toolbox
   \\    /   O peration     | Website:  https://openfoam.org
    \\  /    A nd           | Version:  6
     \\/     M anipulation  |
\*---------------------------------------------------------------------------*/
FoamFile
{
    version     2.0;
    format      ascii;
    class       dictionary;
    object      blockMeshDict;
}
// * * * * * * * * * * * * * * * * * * * * * * * * * * * * * * * * * * * * * //

convertToMeters 0.2825;

vertices
(
    (0 0.566 0) //0
    (0 0 0) //1
    (3.55 0 0)  //2
    (3.55 0.283 0) //3
    (3.6 0.283 0) //4
    (3.6 0 0) //5
    (4.5 0 0) //6
    (4.5 0.283 0) //7
    (4.55 0.283 0) //8
    (4.55 0 0) //9
    (8 0 0) //10
    (8 0.566 0) //11
    (4.55 0.566 0) //12
    (4.5 0.566 0) //13
    (3.6 0.566 0) //14
    (3.55 0.566 0) //15

    (0 0.566 0.1) //16
    (0 0 0.1) //17
    (3.55 0 0.1) //18
    (3.55 0.283 0.1) //19
    (3.6 0.283 0.1) //20
    (3.6 0 0.1) //21
    (4.5 0 0.1) //22
    (4.5 0.283 0.1) //23
    (4.55 0.283 0.1) //24
    (4.55 0 0.1) //25
    (8 0 0.1) //26
    (8 0.566 0.1) //27
    (4.55 0.566 0.1) //28
    (4.5 0.566 0.1) //29
    (3.6 0.566 0.1) //30
    (3.55 0.566 0.1)//31
    (8 0.283 0) //32
    (8 0.283 0.1) //33
    (0 0.283 0) //34
    (0 0.283 0.1) //35

);

blocks
(
    hex (0 34 3 15 16 35 19 31) (50 50 1) simpleGrading (1 2 1)
    hex (34 1 2 3 35 17 18 19) (50 50 1) simpleGrading (1 2 1)
    hex (15 3 4 14 31 19 20 30) (50 50 1) simpleGrading (1 1 1)
    hex (14 4 7 13 30 20 23 29) (50 50 1) simpleGrading (1 1 1)
    hex (4 5 6 7 20 21 22 23) (50 50 1) simpleGrading (1 1 1)
    
    hex (13 7 8 12 29 23 24 28) (50 50 1) simpleGrading (1 1 1)
    hex (12 8 32 11 28 24 33 27) (50 50 1) simpleGrading (1 1 1)
    hex (8 9 10 32 24 25 26 33) (50 50 1) simpleGrading (1 1 1)

/*    //hex (14 5 6 13 30 21 22 29) (100 100 1) simpleGrading (1 1 1)
    //hex (7 8 12 13 23 24 28 29) (100 100 1) simpleGrading (1 1 1)
    //hex (12 9 10 11 28 25 26 28) (100 100 1) simpleGrading (1 1 1)
*/);

edges
(
);

boundary
(
    leftWall
    {
        type wall;
        faces
        (
            (0 16 35 34)
            (34 35 17 1)
            (7 6 23 22)
            (3 19 18 2)

        );
    }
    rightWall
    {
        type wall;
        faces
        (
            (8 9 25 24)
            (32 10 26 33)
            (11 32 33 27)
            (4 5 21 20)

        );
    }
    lowerWall
    {
        type wall;
        faces
        (
            (1 17 18 2)
            (3 4 20 19)
            (5 21 22 6)
            (7 23 24 8)
            (9 25 26 10)
        );
    }
    atmosphere
    {
        type patch;
        faces
        (
            (0 15 31 16)
            (15 14 30 31)
            (14 13 29 30)
            (13 12 28 29)
            (12 11 27 28)
            
        );
    }
);

mergePatchPairs
(
);

// ************************************************************************* //
